
 *******************************************************************************

         NASA-GLENN CHEMICAL EQUILIBRIUM PROGRAM CEA2, MAY 21, 2004
                   BY  BONNIE MCBRIDE AND SANFORD GORDON
      REFS: NASA RP-1311, PART I, 1994 AND NASA RP-1311, PART II, 1996

 *******************************************************************************



 problem   case=case_01
     hp   p,bar=100.0
 react
     fuel=H2 wt=0.9,  t,k=300
     oxid=O2 wt=0.1,  t,k=300
 output  transport short trace= 1e-10
     plot o/f p t m cp H H2 O O2 O3 OH H2O H2O(L)
 end





         THERMODYNAMIC EQUILIBRIUM COMBUSTION PROPERTIES AT ASSIGNED

                                   PRESSURES

 CASE = case_01        

             REACTANT                    WT FRACTION      ENERGY      TEMP
                                          (SEE NOTE)     KJ/KG-MOL      K  
 FUEL        H2                           1.0000000        53.359    300.000
 OXIDANT     O2                           1.0000000        54.358    300.000

 O/F=    0.11111  %FUEL= 90.000000  R,EQ.RATIO=71.430145  PHI,EQ.RATIO=71.430145

 THERMODYNAMIC PROPERTIES

 P, BAR            100.00
 T, K              416.14
 RHO, KG/CU M    6.4735 0
 H, KJ/KG          23.992
 U, KJ/KG        -1520.76
 G, KJ/KG        -19211.4
 S, KJ/(KG)(K)    46.2229

 M, (1/n)           2.240
 (dLV/dLP)t      -1.00000
 (dLV/dLT)p        1.0000
 Cp, KJ/(KG)(K)   13.0719
 GAMMAs            1.3966
 SON VEL,M/SEC     1468.8

 TRANSPORT PROPERTIES (GASES ONLY)
   CONDUCTIVITY IN UNITS OF MILLIWATTS/(CM)(K)

 VISC,MILLIPOISE  0.11812

  WITH EQUILIBRIUM REACTIONS

 Cp, KJ/(KG)(K)   13.0719
 CONDUCTIVITY      2.3129
 PRANDTL NUMBER    0.6676

  WITH FROZEN REACTIONS

 Cp, KJ/(KG)(K)   13.0719
 CONDUCTIVITY      2.3129
 PRANDTL NUMBER    0.6676

 MOLE FRACTIONS

 *H2             9.8600-1
 H2O             1.4000-2

  * THERMODYNAMIC PROPERTIES FITTED TO 20000.K

 NOTE. WEIGHT FRACTION OF FUEL IN TOTAL FUELS AND OF OXIDANT IN TOTAL OXIDANTS



