
 *******************************************************************************

         NASA-GLENN CHEMICAL EQUILIBRIUM PROGRAM CEA2, MAY 21, 2004
                   BY  BONNIE MCBRIDE AND SANFORD GORDON
      REFS: NASA RP-1311, PART I, 1994 AND NASA RP-1311, PART II, 1996

 *******************************************************************************



 problem   case=case_01
     hp   p,bar=25.75
 react
     fuel=H2 wt=0.4,  t,k=339.7590361445783
     oxid=O2 wt=1,  t,k=339.7590361445783
 output  transport short trace= 1e-10
     plot o/f p t m cp H H2 O O2 O3 OH H2O H2O(L)
 end





         THERMODYNAMIC EQUILIBRIUM COMBUSTION PROPERTIES AT ASSIGNED

                                   PRESSURES

 CASE = case_01        

             REACTANT                    WT FRACTION      ENERGY      TEMP
                                          (SEE NOTE)     KJ/KG-MOL      K  
 FUEL        H2                           1.0000000      1204.817    339.759
 OXIDANT     O2                           1.0000000      1227.283    339.759

 O/F=    2.50000  %FUEL= 28.571429  R,EQ.RATIO= 3.174673  PHI,EQ.RATIO= 3.174673

 THERMODYNAMIC PROPERTIES

 P, BAR            25.750
 T, K             2430.47
 RHO, KG/CU M    8.9757-1
 H, KJ/KG          198.16
 U, KJ/KG        -2670.70
 G, KJ/KG        -68338.6
 S, KJ/(KG)(K)    28.1990

 M, (1/n)           7.044
 (dLV/dLP)t      -1.00082
 (dLV/dLT)p        1.0190
 Cp, KJ/(KG)(K)    6.4115
 GAMMAs            1.2351
 SON VEL,M/SEC     1882.4

 TRANSPORT PROPERTIES (GASES ONLY)
   CONDUCTIVITY IN UNITS OF MILLIWATTS/(CM)(K)

 VISC,MILLIPOISE  0.67902

  WITH EQUILIBRIUM REACTIONS

 Cp, KJ/(KG)(K)    6.4115
 CONDUCTIVITY      7.7168
 PRANDTL NUMBER    0.5642

  WITH FROZEN REACTIONS

 Cp, KJ/(KG)(K)    5.8909
 CONDUCTIVITY      6.4677
 PRANDTL NUMBER    0.6185

 MOLE FRACTIONS

 *H              2.9942-3
 HO2             1.1721-9
 *H2             6.8253-1
 H2O             3.1418-1
 H2O2            3.7018-9
 *O              7.6425-7
 *OH             2.9052-4
 *O2             1.4512-7

  * THERMODYNAMIC PROPERTIES FITTED TO 20000.K

 NOTE. WEIGHT FRACTION OF FUEL IN TOTAL FUELS AND OF OXIDANT IN TOTAL OXIDANTS



