
 *******************************************************************************

         NASA-GLENN CHEMICAL EQUILIBRIUM PROGRAM CEA2, MAY 21, 2004
                   BY  BONNIE MCBRIDE AND SANFORD GORDON
      REFS: NASA RP-1311, PART I, 1994 AND NASA RP-1311, PART II, 1996

 *******************************************************************************



 problem   case=case_01
     hp   p,bar=1,  t,k=300
 react
     fuel=H2 wt=0.025000000000000022,  t,k=300
     oxid=O2 wt=0.975,  t,k=300
 output  transport short
     plot o/f p t m cp H H2 O O2 O3 OH H2O H2O(L)
 end





         THERMODYNAMIC EQUILIBRIUM COMBUSTION PROPERTIES AT ASSIGNED

                                   PRESSURES

 CASE = case_01        

             REACTANT                    WT FRACTION      ENERGY      TEMP
                                          (SEE NOTE)     KJ/KG-MOL      K  
 FUEL        H2                           1.0000000        53.359    300.000
 OXIDANT     O2                           1.0000000        54.358    300.000

 O/F=   39.00000  %FUEL=  2.500000  R,EQ.RATIO= 0.203505  PHI,EQ.RATIO= 0.203505

 THERMODYNAMIC PROPERTIES

 P, BAR            1.0000
 T, K             2308.44
 RHO, KG/CU M    1.4097-1
 H, KJ/KG          2.3180
 U, KJ/KG         -707.04
 G, KJ/KG        -23802.3
 S, KJ/(KG)(K)    10.3120

 M, (1/n)          27.058
 (dLV/dLP)t      -1.00267
 (dLV/dLT)p        1.0789
 Cp, KJ/(KG)(K)    2.3311
 GAMMAs            1.1776
 SON VEL,M/SEC      914.0

 TRANSPORT PROPERTIES (GASES ONLY)
   CONDUCTIVITY IN UNITS OF MILLIWATTS/(CM)(K)

 VISC,MILLIPOISE  0.83689

  WITH EQUILIBRIUM REACTIONS

 Cp, KJ/(KG)(K)    2.3311
 CONDUCTIVITY      3.1892
 PRANDTL NUMBER    0.6117

  WITH FROZEN REACTIONS

 Cp, KJ/(KG)(K)    1.6008
 CONDUCTIVITY      1.8366
 PRANDTL NUMBER    0.7294

 MOLE FRACTIONS

 *H               0.00030
 HO2              0.00004
 *H2              0.00087
 H2O              0.32446
 *O               0.00420
 *OH              0.02011
 *O2              0.65002

  * THERMODYNAMIC PROPERTIES FITTED TO 20000.K

 NOTE. WEIGHT FRACTION OF FUEL IN TOTAL FUELS AND OF OXIDANT IN TOTAL OXIDANTS



