
 *******************************************************************************

         NASA-GLENN CHEMICAL EQUILIBRIUM PROGRAM CEA2, MAY 21, 2004
                   BY  BONNIE MCBRIDE AND SANFORD GORDON
      REFS: NASA RP-1311, PART I, 1994 AND NASA RP-1311, PART II, 1996

 *******************************************************************************



 problem   case=case_01
     hp   p,bar=100
 react
     fuel=H2 wt=0.025000000000000022,  t,k=300
     oxid=O2 wt=0.975,  t,k=300
 output  transport short trace= 1e-10
     plot o/f p t m cp H H2 O O2 O3 OH H2O H2O(L)
 end





         THERMODYNAMIC EQUILIBRIUM COMBUSTION PROPERTIES AT ASSIGNED

                                   PRESSURES

 CASE = case_01        

             REACTANT                    WT FRACTION      ENERGY      TEMP
                                          (SEE NOTE)     KJ/KG-MOL      K  
 FUEL        H2                           1.0000000        53.359    300.000
 OXIDANT     O2                           1.0000000        54.358    300.000

 O/F=   39.00000  %FUEL=  2.500000  R,EQ.RATIO= 0.203505  PHI,EQ.RATIO= 0.203505

 THERMODYNAMIC PROPERTIES

 P, BAR            100.00
 T, K             2379.55
 RHO, KG/CU M    1.3750 1
 H, KJ/KG          2.3180
 U, KJ/KG         -724.97
 G, KJ/KG        -21178.9
 S, KJ/(KG)(K)     8.9014

 M, (1/n)          27.204
 (dLV/dLP)t      -1.00073
 (dLV/dLT)p        1.0215
 Cp, KJ/(KG)(K)    1.8176
 GAMMAs            1.2118
 SON VEL,M/SEC      938.8

 TRANSPORT PROPERTIES (GASES ONLY)
   CONDUCTIVITY IN UNITS OF MILLIWATTS/(CM)(K)

 VISC,MILLIPOISE  0.85237

  WITH EQUILIBRIUM REACTIONS

 Cp, KJ/(KG)(K)    1.8176
 CONDUCTIVITY      2.2288
 PRANDTL NUMBER    0.6951

  WITH FROZEN REACTIONS

 Cp, KJ/(KG)(K)    1.6097
 CONDUCTIVITY      1.8836
 PRANDTL NUMBER    0.7284

 MOLE FRACTIONS

 *H              1.6598-5
 HO2             1.4435-4
 *H2             1.3207-4
 H2O             3.3299-1
 H2O2            1.4630-5
 *O              6.2963-4
 *OH             8.2956-3
 *O2             6.5777-1
 O3              1.3374-6

  * THERMODYNAMIC PROPERTIES FITTED TO 20000.K

 NOTE. WEIGHT FRACTION OF FUEL IN TOTAL FUELS AND OF OXIDANT IN TOTAL OXIDANTS



